Version 4
SHEET 1 880 680
WIRE -288 144 -416 144
WIRE -176 144 -288 144
WIRE 16 144 -176 144
WIRE 144 144 16 144
WIRE 224 144 144 144
WIRE 368 144 288 144
WIRE 368 176 368 144
WIRE -416 224 -416 144
WIRE -176 240 -176 224
WIRE -128 240 -176 240
WIRE 16 240 16 224
WIRE 64 240 16 240
WIRE 192 240 64 240
WIRE -288 256 -288 224
WIRE -176 256 -176 240
WIRE 16 256 16 240
WIRE -128 272 -128 240
WIRE 128 272 -128 272
WIRE 192 272 192 240
WIRE 128 288 128 272
WIRE 160 288 128 288
WIRE 320 304 320 256
WIRE 320 304 224 304
WIRE 160 320 128 320
WIRE 368 320 368 272
WIRE 368 320 320 320
WIRE -416 336 -416 304
WIRE -176 336 -288 336
WIRE 16 336 16 320
WIRE 16 336 -176 336
WIRE 64 336 64 240
WIRE 128 336 128 320
WIRE 128 336 64 336
WIRE 368 336 368 320
WIRE 16 352 16 336
WIRE 192 368 192 336
WIRE 320 368 320 320
WIRE 320 368 192 368
FLAG 16 352 0
FLAG 368 336 0
FLAG -416 336 0
FLAG 144 208 0
DATAFLAG -176 240 ""
DATAFLAG 16 240 ""
DATAFLAG 256 304 ""
DATAFLAG 368 144 ""
DATAFLAG 80 144 ""
SYMBOL res -192 128 R0
SYMATTR InstName R1
SYMATTR Value 1000k
SYMBOL res -192 240 R0
SYMATTR InstName R2
SYMATTR Value 100k
SYMBOL res 0 128 R0
WINDOW 3 72 40 Left 2
SYMATTR Value 200
SYMATTR InstName R3
SYMBOL zener 32 320 R180
WINDOW 0 -50 35 Left 2
WINDOW 3 -34 -68 Left 2
SYMATTR InstName D1
SYMATTR Value EDZV9_1B
SYMBOL cap 128 144 R0
WINDOW 0 36 21 Left 2
WINDOW 3 22 49 Left 2
SYMATTR InstName C1
SYMATTR Value 100µ
SYMATTR SpiceLine V=125 Irms=2.1 Rser=1.8 Lser=0 mfg="Vishay" pn="T16C107M125" type="Tantalum Wet"
SYMBOL Misc\\battery -416 208 R0
WINDOW 123 0 0 Left 0
WINDOW 39 0 0 Left 0
SYMATTR InstName V1
SYMATTR Value 150
SYMBOL res -304 128 R0
SYMATTR InstName R5
SYMATTR Value 100k
SYMBOL res -304 240 R0
SYMATTR InstName R6
SYMATTR Value 5k
SYMBOL OpAmps\\OP07 192 240 R0
SYMATTR InstName U1
SYMBOL nmos 320 176 R0
SYMATTR InstName M1
SYMATTR Value IRFP240
SYMBOL diode 224 160 R270
WINDOW 0 32 32 VTop 2
WINDOW 3 0 32 VBottom 2
SYMATTR InstName D2
TEXT -304 384 Left 2 !.tran 1
